<?xml version="1.0" encoding="UTF-8"?>

<!-- generated on 2024-06-17 19:51:18 by Eclipse SUMO netedit Version 1.18.0
<configuration xmlns:xsi="http://www.w3.org/2001/XMLSchema-instance" xsi:noNamespaceSchemaLocation="http://sumo.dlr.de/xsd/neteditConfiguration.xsd">

    <input>
        <sumo-net-file value="C:\Users\39342\Sumo\four_way\four_way_multiple.net.xml"/>
    </input>

    <output>
        <output-file value="C:\Users\39342\Sumo\four_way\four_way_multiple.net.xml"/>
    </output>

    <processing>
        <geometry.min-radius.fix.railways value="false"/>
        <geometry.max-grade.fix value="false"/>
        <offset.disable-normalization value="true"/>
        <lefthand value="0"/>
    </processing>

    <junctions>
        <no-turnarounds value="true"/>
        <junctions.corner-detail value="5"/>
        <junctions.limit-turn-speed value="5.50"/>
        <rectangular-lane-cut value="0"/>
    </junctions>

    <pedestrian>
        <walkingareas value="0"/>
    </pedestrian>

</configuration>
-->

<net version="1.16" junctionCornerDetail="5" limitTurnSpeed="5.50" xmlns:xsi="http://www.w3.org/2001/XMLSchema-instance" xsi:noNamespaceSchemaLocation="http://sumo.dlr.de/xsd/net_file.xsd">

    <location netOffset="0.00,0.00" convBoundary="-207.20,-207.20,207.20,207.20" origBoundary="-10000000000.00,-10000000000.00,10000000000.00,10000000000.00" projParameter="!"/>

    <edge id=":J1_0" function="internal">
        <lane id=":J1_0_0" index="0" speed="6.51" length="9.03" shape="-4.80,10.40 -5.15,7.95 -6.20,6.20 -7.95,5.15 -10.40,4.80"/>
    </edge>
    <edge id=":J1_1" function="internal">
        <lane id=":J1_1_0" index="0" speed="13.89" length="20.80" shape="-4.80,10.40 -4.80,-10.40"/>
    </edge>
    <edge id=":J1_2" function="internal">
        <lane id=":J1_2_0" index="0" speed="9.26" length="10.42" shape="-1.60,10.40 -0.85,5.15 1.40,1.40 2.04,1.02"/>
    </edge>
    <edge id=":J1_12" function="internal">
        <lane id=":J1_12_0" index="0" speed="9.26" length="8.93" shape="2.04,1.02 5.15,-0.85 10.40,-1.60"/>
    </edge>
    <edge id=":J1_3" function="internal">
        <lane id=":J1_3_0" index="0" speed="6.51" length="9.03" shape="10.40,4.80 7.95,5.15 6.20,6.20 5.15,7.95 4.80,10.40"/>
    </edge>
    <edge id=":J1_4" function="internal">
        <lane id=":J1_4_0" index="0" speed="13.89" length="20.80" shape="10.40,4.80 -10.40,4.80"/>
    </edge>
    <edge id=":J1_5" function="internal">
        <lane id=":J1_5_0" index="0" speed="9.26" length="19.35" shape="10.40,1.60 5.15,0.85 1.40,-1.40 -0.85,-5.15 -1.60,-10.40"/>
    </edge>
    <edge id=":J1_6" function="internal">
        <lane id=":J1_6_0" index="0" speed="6.51" length="9.03" shape="4.80,-10.40 5.15,-7.95 6.20,-6.20 7.95,-5.15 10.40,-4.80"/>
    </edge>
    <edge id=":J1_7" function="internal">
        <lane id=":J1_7_0" index="0" speed="13.89" length="20.80" shape="4.80,-10.40 4.80,10.40"/>
    </edge>
    <edge id=":J1_8" function="internal">
        <lane id=":J1_8_0" index="0" speed="9.26" length="10.42" shape="1.60,-10.40 0.85,-5.15 -1.40,-1.40 -2.04,-1.02"/>
    </edge>
    <edge id=":J1_13" function="internal">
        <lane id=":J1_13_0" index="0" speed="9.26" length="8.93" shape="-2.04,-1.02 -5.15,0.85 -10.40,1.60"/>
    </edge>
    <edge id=":J1_9" function="internal">
        <lane id=":J1_9_0" index="0" speed="6.51" length="9.03" shape="-10.40,-4.80 -7.95,-5.15 -6.20,-6.20 -5.15,-7.95 -4.80,-10.40"/>
    </edge>
    <edge id=":J1_10" function="internal">
        <lane id=":J1_10_0" index="0" speed="13.89" length="20.80" shape="-10.40,-4.80 10.40,-4.80"/>
    </edge>
    <edge id=":J1_11" function="internal">
        <lane id=":J1_11_0" index="0" speed="9.26" length="19.35" shape="-10.40,-1.60 -5.15,-0.85 -1.40,1.40 0.85,5.15 1.60,10.40"/>
    </edge>

    <edge id="etoj" from="J3" to="J1" priority="-1">
        <lane id="etoj_0" index="0" speed="13.89" length="196.80" shape="207.20,4.80 10.40,4.80"/>
        <lane id="etoj_1" index="1" speed="13.89" length="196.80" shape="207.20,1.60 10.40,1.60"/>
    </edge>
    <edge id="jtoe" from="J1" to="J3" priority="-1">
        <lane id="jtoe_0" index="0" speed="13.89" length="196.80" shape="10.40,-4.80 207.20,-4.80"/>
        <lane id="jtoe_1" index="1" speed="13.89" length="196.80" shape="10.40,-1.60 207.20,-1.60"/>
    </edge>
    <edge id="jton" from="J1" to="J2" priority="-1">
        <lane id="jton_0" index="0" speed="13.89" length="196.80" shape="4.80,10.40 4.80,207.20"/>
        <lane id="jton_1" index="1" speed="13.89" length="196.80" shape="1.60,10.40 1.60,207.20"/>
    </edge>
    <edge id="jtos" from="J1" to="J4" priority="-1">
        <lane id="jtos_0" index="0" speed="13.89" length="196.80" shape="-4.80,-10.40 -4.80,-207.20"/>
        <lane id="jtos_1" index="1" speed="13.89" length="196.80" shape="-1.60,-10.40 -1.60,-207.20"/>
    </edge>
    <edge id="jtow" from="J1" to="J0" priority="-1">
        <lane id="jtow_0" index="0" speed="13.89" length="196.80" shape="-10.40,4.80 -207.20,4.80"/>
        <lane id="jtow_1" index="1" speed="13.89" length="196.80" shape="-10.40,1.60 -207.20,1.60"/>
    </edge>
    <edge id="ntoj" from="J2" to="J1" priority="-1">
        <lane id="ntoj_0" index="0" speed="13.89" length="196.80" shape="-4.80,207.20 -4.80,10.40"/>
        <lane id="ntoj_1" index="1" speed="13.89" length="196.80" shape="-1.60,207.20 -1.60,10.40"/>
    </edge>
    <edge id="stoj" from="J4" to="J1" priority="-1">
        <lane id="stoj_0" index="0" speed="13.89" length="196.80" shape="4.80,-207.20 4.80,-10.40"/>
        <lane id="stoj_1" index="1" speed="13.89" length="196.80" shape="1.60,-207.20 1.60,-10.40"/>
    </edge>
    <edge id="wtoj" from="J0" to="J1" priority="-1">
        <lane id="wtoj_0" index="0" speed="13.89" length="196.80" shape="-207.20,-4.80 -10.40,-4.80"/>
        <lane id="wtoj_1" index="1" speed="13.89" length="196.80" shape="-207.20,-1.60 -10.40,-1.60"/>
    </edge>

    <junction id="J0" type="dead_end" x="-207.20" y="0.00" incLanes="jtow_0 jtow_1" intLanes="" shape="-207.20,0.00 -207.20,6.40 -207.20,0.00"/>
    <junction id="J1" type="priority" x="0.00" y="0.00" incLanes="ntoj_0 ntoj_1 etoj_0 etoj_1 stoj_0 stoj_1 wtoj_0 wtoj_1" intLanes=":J1_0_0 :J1_1_0 :J1_12_0 :J1_3_0 :J1_4_0 :J1_5_0 :J1_6_0 :J1_7_0 :J1_13_0 :J1_9_0 :J1_10_0 :J1_11_0" shape="-6.40,10.40 6.40,10.40 6.84,8.18 7.40,7.40 8.18,6.84 9.18,6.51 10.40,6.40 10.40,-6.40 8.18,-6.84 7.40,-7.40 6.84,-8.18 6.51,-9.18 6.40,-10.40 -6.40,-10.40 -6.84,-8.18 -7.40,-7.40 -8.18,-6.84 -9.18,-6.51 -10.40,-6.40 -10.40,6.40 -8.18,6.84 -7.40,7.40 -6.84,8.18 -6.51,9.18">
        <request index="0"  response="000000000000" foes="000000010000" cont="0"/>
        <request index="1"  response="000000000000" foes="111100010000" cont="0"/>
        <request index="2"  response="000010000000" foes="100010110000" cont="1"/>
        <request index="3"  response="000010000000" foes="000010000000" cont="0"/>
        <request index="4"  response="000010000111" foes="100010000111" cont="0"/>
        <request index="5"  response="010110000100" foes="010110000100" cont="0"/>
        <request index="6"  response="000000000000" foes="010000000000" cont="0"/>
        <request index="7"  response="000000000000" foes="010000111100" cont="0"/>
        <request index="8"  response="000000000010" foes="110000100010" cont="1"/>
        <request index="9"  response="000000000010" foes="000000000010" cont="0"/>
        <request index="10" response="000111000010" foes="000111100010" cont="0"/>
        <request index="11" response="000100010110" foes="000100010110" cont="0"/>
    </junction>
    <junction id="J2" type="dead_end" x="0.00" y="207.20" incLanes="jton_0 jton_1" intLanes="" shape="0.00,207.20 6.40,207.20 0.00,207.20"/>
    <junction id="J3" type="dead_end" x="207.20" y="0.00" incLanes="jtoe_0 jtoe_1" intLanes="" shape="207.20,0.00 207.20,-6.40 207.20,0.00"/>
    <junction id="J4" type="dead_end" x="0.00" y="-207.20" incLanes="jtos_0 jtos_1" intLanes="" shape="0.00,-207.20 -6.40,-207.20 0.00,-207.20"/>

    <junction id=":J1_12_0" type="internal" x="2.04" y="1.02" incLanes=":J1_2_0 stoj_0" intLanes=":J1_4_0 :J1_5_0 :J1_6_0 :J1_7_0 :J1_10_0 :J1_11_0"/>
    <junction id=":J1_13_0" type="internal" x="-2.04" y="-1.02" incLanes=":J1_8_0 ntoj_0" intLanes=":J1_0_0 :J1_1_0 :J1_4_0 :J1_5_0 :J1_10_0 :J1_11_0"/>

    <connection from="etoj" to="jton" fromLane="0" toLane="0" via=":J1_3_0" dir="r" state="m"/>
    <connection from="etoj" to="jtow" fromLane="0" toLane="0" via=":J1_4_0" dir="s" state="m"/>
    <connection from="etoj" to="jtos" fromLane="1" toLane="1" via=":J1_5_0" dir="l" state="m"/>
    <connection from="ntoj" to="jtow" fromLane="0" toLane="0" via=":J1_0_0" dir="r" state="M"/>
    <connection from="ntoj" to="jtos" fromLane="0" toLane="0" via=":J1_1_0" dir="s" state="M"/>
    <connection from="ntoj" to="jtoe" fromLane="1" toLane="1" via=":J1_2_0" dir="l" state="m"/>
    <connection from="stoj" to="jtoe" fromLane="0" toLane="0" via=":J1_6_0" dir="r" state="M"/>
    <connection from="stoj" to="jton" fromLane="0" toLane="0" via=":J1_7_0" dir="s" state="M"/>
    <connection from="stoj" to="jtow" fromLane="1" toLane="1" via=":J1_8_0" dir="l" state="m"/>
    <connection from="wtoj" to="jtos" fromLane="0" toLane="0" via=":J1_9_0" dir="r" state="m"/>
    <connection from="wtoj" to="jtoe" fromLane="0" toLane="0" via=":J1_10_0" dir="s" state="m"/>
    <connection from="wtoj" to="jton" fromLane="1" toLane="1" via=":J1_11_0" dir="l" state="m"/>

    <connection from=":J1_0" to="jtow" fromLane="0" toLane="0" dir="r" state="M"/>
    <connection from=":J1_1" to="jtos" fromLane="0" toLane="0" dir="s" state="M"/>
    <connection from=":J1_2" to="jtoe" fromLane="0" toLane="1" via=":J1_12_0" dir="l" state="m"/>
    <connection from=":J1_12" to="jtoe" fromLane="0" toLane="1" dir="l" state="M"/>
    <connection from=":J1_3" to="jton" fromLane="0" toLane="0" dir="r" state="M"/>
    <connection from=":J1_4" to="jtow" fromLane="0" toLane="0" dir="s" state="M"/>
    <connection from=":J1_5" to="jtos" fromLane="0" toLane="1" dir="l" state="M"/>
    <connection from=":J1_6" to="jtoe" fromLane="0" toLane="0" dir="r" state="M"/>
    <connection from=":J1_7" to="jton" fromLane="0" toLane="0" dir="s" state="M"/>
    <connection from=":J1_8" to="jtow" fromLane="0" toLane="1" via=":J1_13_0" dir="l" state="m"/>
    <connection from=":J1_13" to="jtow" fromLane="0" toLane="1" dir="l" state="M"/>
    <connection from=":J1_9" to="jtos" fromLane="0" toLane="0" dir="r" state="M"/>
    <connection from=":J1_10" to="jtoe" fromLane="0" toLane="0" dir="s" state="M"/>
    <connection from=":J1_11" to="jton" fromLane="0" toLane="1" dir="l" state="M"/>

</net>
